<?xml version="1.0" encoding="UTF-8"?>

<!-- generated on Fri Jul 12 15:34:23 2019 by Eclipse SUMO polyconvert Version 1.2.0
<configuration xmlns:xsi="http://www.w3.org/2001/XMLSchema-instance" xsi:noNamespaceSchemaLocation="http://sumo.dlr.de/xsd/polyconvertConfiguration.xsd">

    <input>
        <net-file value="washington-100.net.xml"/>
        <osm-files value="washington-map-100-cleared.osm"/>
        <type-file value="../typeMap.xml"/>
    </input>

    <output>
        <output-file value="../osmPolyconvert.typ.xml"/>
    </output>

    <processing>
        <poi-layer-offset value="5"/>
    </processing>

</configuration>
-->

<additional xmlns:xsi="http://www.w3.org/2001/XMLSchema-instance" xsi:noNamespaceSchemaLocation="http://sumo.dlr.de/xsd/additional_file.xsd">
    <location netOffset="0.00,0.00" convBoundary="322326.23,4307473.92,323909.46,4309063.64" origBoundary="-77.048989,38.898314,-77.030901,38.912695" projParameter="+proj=utm +zone=18 +ellps=WGS84 +datum=WGS84 +units=m +no_defs"/>

</additional>
